realLoadAllocation_VLN_Node.Txt

LINE-GROUND and LINE-LINE VOLTAGES BY BUS & NODE

Bus       Node    VLN (kV)   Angle      pu     Base kV    Node-Node   VLL (kV)  Angle      pu

SOURCEBUS 1       6.3508 /_    0.0         1    11.000        1-2         11 /_   30.0         1
   -      2       6.3508 /_ -120.0         1    11.000        2-3         11 /_  -90.0         1
   -      3       6.3508 /_  120.0         1    11.000        3-1         11 /_  150.0         1
A ....... 1      0.23765 /_  -30.5   0.99185     0.415        1-2    0.41162 /_   -0.5   0.99186
   -      2      0.23765 /_ -150.5   0.99188     0.415        2-3    0.41162 /_ -120.5   0.99186
   -      3      0.23765 /_   89.5   0.99186     0.415        3-1    0.41163 /_  119.5   0.99188
B ....... 1      0.23323 /_  -31.1    0.9734     0.415        1-2    0.40457 /_   -1.1   0.97487
   -      2      0.23391 /_ -151.2   0.97625     0.415        2-3    0.40553 /_ -121.2   0.97719
   -      3      0.23407 /_   88.7   0.97694     0.415        3-1    0.40443 /_  118.7   0.97454
C ....... 1      0.23006 /_  -31.6   0.96019     0.415        1-2    0.39952 /_   -1.5   0.96271
   -      2      0.23124 /_ -151.6    0.9651     0.415        2-3    0.40118 /_ -121.7   0.96671
   -      3      0.23152 /_   88.2   0.96629     0.415        3-1     0.3993 /_  118.2   0.96217
D ....... 1      0.22801 /_  -31.9   0.95161     0.415        1-2    0.39624 /_   -1.8    0.9548
   -      2       0.2295 /_ -152.0   0.95785     0.415        2-3    0.39836 /_ -122.1    0.9599
   -      3      0.22987 /_   87.8   0.95939     0.415        3-1    0.39597 /_  117.8   0.95414
E ....... 1       0.2269 /_  -32.1   0.94701     0.415        1-2    0.39448 /_   -2.0   0.95055
   -      2      0.22856 /_ -152.1   0.95392     0.415        2-3    0.39684 /_ -122.3   0.95624
   -      3      0.22898 /_   87.6   0.95568     0.415        3-1    0.39418 /_  117.6   0.94982
F ....... 1      0.22643 /_  -32.2   0.94505     0.415        1-2    0.39372 /_   -2.1   0.94873
   -      2      0.22816 /_ -152.2   0.95223     0.415        2-3    0.39619 /_ -122.3   0.95467
   -      3       0.2286 /_   87.5   0.95409     0.415        3-1    0.39341 /_  117.5   0.94797
